#RADIOSS STARTER
#--------------------------------------------------------------------------------------------------|
#- RADIOSS DECK WRITTEN BY HyperCrash
#HyperCrash 2022 (64 bits) 
#Wed Jan 18 16:15:06 2023
#-
#--------------------------------------------------------------------------------------------------|
#- RADIOSS DECK WRITTEN BY HyperCrash
#HyperCrash 2022 (64 bits)
#Tue Jan 17 16:30:15 2023
#-
#--------------------------------------------------------------------------------------------------|
#- RADIOSS DECK WRITTEN BY HyperCrash
#HyperCrash 2022 (64 bits)
#Tue Jan 17 16:11:36 2023
#-
#--------------------------------------------------------------------------------------------------|
#- RADIOSS DECK WRITTEN BY HyperCrash
#HyperCrash 2022 (64 bits)
#Wed Dec 14 09:50:19 2022
#-
#--------------------------------------------------------------------------------------------------|
#- RADIOSS DECK WRITTEN BY HyperCrash
#HyperCrash 2022 (64 bits)
#Fri Dec  9 16:55:41 2022
#-
#--------------------------------------------------------------------------------------------------|
#- RADIOSS DECK WRITTEN BY HyperCrash
#HyperCrash 2022 (64 bits)
#Fri Dec  9 12:15:27 2022
#-
##========================================================================================
##
## Radioss Input Deck Generated by HyperMesh Version  : 2022.0.0.33
## Generated using HyperMesh-Radioss Template Version : 2022.0.0.33
## Date: 12-09-2022   Time: 10:27:41
##
##========================================================================================
##
##--------------------------------------------------------------------------------------------------
#--------------------------------------------------------------------------------------------------|
#- RADIOSS DECK WRITTEN BY HyperCrash
#HyperCrash 2022 (64 bits)
#Fri Dec  9 10:08:06 2022
#-
#
#-
#- DATE	Fri Dec  9 10:08:06 2022
#--------------------------------------------------------------------------------------------------|
#---1----|----2----|----3----|----4----|----5----|----6----|----7----|----8----|----9----|---10----|
##
#
#
#
#
#
#
#
#
#
#
#-
#- DATE	Fri Dec  9 12:15:27 2022
#--------------------------------------------------------------------------------------------------|
#---1----|----2----|----3----|----4----|----5----|----6----|----7----|----8----|----9----|---10----|
#
#
#
#
#
#
#
#
#
#
#
#
#
#
#
#
#
#-
#- DATE	Fri Dec  9 16:55:41 2022
#--------------------------------------------------------------------------------------------------|
#---1----|----2----|----3----|----4----|----5----|----6----|----7----|----8----|----9----|---10----|
#
#
#-
#- DATE	Wed Dec 14 09:50:19 2022
#--------------------------------------------------------------------------------------------------|
#---1----|----2----|----3----|----4----|----5----|----6----|----7----|----8----|----9----|---10----|
#
#
#
#
#-
#- DATE	Tue Jan 17 16:11:36 2023
#--------------------------------------------------------------------------------------------------|
#---1----|----2----|----3----|----4----|----5----|----6----|----7----|----8----|----9----|---10----|
#
#
#
#-
#- DATE	Tue Jan 17 16:30:15 2023
#--------------------------------------------------------------------------------------------------|
#---1----|----2----|----3----|----4----|----5----|----6----|----7----|----8----|----9----|---10----|
#
#-
#- DATE	Wed Jan 18 16:15:06 2023
#--------------------------------------------------------------------------------------------------|
#---1----|----2----|----3----|----4----|----5----|----6----|----7----|----8----|----9----|---10----|
/BEGIN
Head_HighSpeedNoSkin                                                            
      2022         0
                   g                  mm                  ms
                   g                  mm                  ms
#---1----|----2----|----3----|----4----|----5----|----6----|----7----|----8----|----9----|---10----|
#-  1. CONTROL CARDS:
#---1----|----2----|----3----|----4----|----5----|----6----|----7----|----8----|----9----|---10----|
/TITLE

#---1----|----2----|----3----|----4----|----5----|----6----|----7----|----8----|----9----|---10----|
#-  2. MATERIALS:
#---1----|----2----|----3----|----4----|----5----|----6----|----7----|----8----|----9----|---10----|
/MAT/ELAST/2
Pia
#              RHO_I
              .00113                   0
#                  E                  nu
                11.5                 .45
#---1----|----2----|----3----|----4----|----5----|----6----|----7----|----8----|----9----|---10----|
/MAT/ELAST/3
CSF
#              RHO_I
                .001                   0
#                  E                  nu
                .012                 .45
#---1----|----2----|----3----|----4----|----5----|----6----|----7----|----8----|----9----|---10----|
/MAT/ELAST/4
Skull
#              RHO_I
               .0021                   0
#                  E                  nu
               15000                 .23
#---1----|----2----|----3----|----4----|----5----|----6----|----7----|----8----|----9----|---10----|
/MAT/ELAST/6
Ball
#              RHO_I
                .001                   0
#                  E                  nu
                1000                   0
#---1----|----2----|----3----|----4----|----5----|----6----|----7----|----8----|----9----|---10----|
/MAT/COMPSH/7
Cortical Skull
#              RHO_I
               .0019
#                E11                 E22                NU12     Iform                           E33
               15000               15000                 .21         0                             0
#                G12                 G23                 G31              EPS_f1              EPS_f2
                6198                6198                6198                   0                   0
#             EPS_t1              EPS_m1              EPS_t2              EPS_m2                dmax
                .006               .0061                .006               .0061                  .9
#              Wpmax               Wpref      Ioff                         ratio
               1E-10                   1         0                             0
#                  b                   n                fmax
         10000000000                   1                   1
#            sig_1yt             sig_2yt             sig_1yc             sig_2yc               alpha
                  90                  90                 145                 145                 -.5
#           sig_12yc            sig_12yt                c_12          Eps_rate_0       ICC
              1.4E27                9E26                   0                   0         0
#          GAMMA_ini           GAMMA_max               d3max
                   0                   0                   0
#  Fsmooth                Fcut
         0                   0
#---1----|----2----|----3----|----4----|----5----|----6----|----7----|----8----|----9----|---10----|
/MAT/COMPSH/8
Spongious Skull
#              RHO_I
               .0015
#                E11                 E22                NU12     Iform                           E33
                4665                4665                 .05         0                             0
#                G12                 G23                 G31              EPS_f1              EPS_f2
                2232                2232                2232                   0                   0
#             EPS_t1              EPS_m1              EPS_t2              EPS_m2                dmax
               .0073              .00731               .0073              .00731                   0
#              Wpmax               Wpref      Ioff                         ratio
               1E-11                   1         0                             0
#                  b                   n                fmax
                   0                   0                   0
#            sig_1yt             sig_2yt             sig_1yc             sig_2yc               alpha
               34.81               34.81               24.81               24.81                   0
#           sig_12yc            sig_12yt                c_12          Eps_rate_0       ICC
               24.81                  34                   0                   0         0
#          GAMMA_ini           GAMMA_max               d3max
                   0                   0                   0
#  Fsmooth                Fcut
         0                   0
#---1----|----2----|----3----|----4----|----5----|----6----|----7----|----8----|----9----|---10----|
/MAT/BOLTZMAN/9
Brain Boltzman
#              RHO_I
              .00104                   0
#                  K
                1125
#                 G0                  Gl                Beta
                .049               .0167                .125
#                 P0                 Phi              Gamma0
                   0                   0                   0
#---1----|----2----|----3----|----4----|----5----|----6----|----7----|----8----|----9----|---10----|
#-  3. NODES:
#---1----|----2----|----3----|----4----|----5----|----6----|----7----|----8----|----9----|---10----|
/NODE
         5                  40                   0                   0
         6                  40                   8                   0
         7                  40                  16                   0
         8                  40                  24                   0
         9                  40                  32                   0
        10                  40                  40                   0
        11                  32                  40                   0
        12                  24                  40                   0
        13                  16                  40                   0
        14    7.99999999999999                  40                   0
        15                   0                  40                   0
        16                   0    32.0000000000001    1.4210854715E-14
        17                   0    24.0000000000001                   0
        18                   0                  16                   0
        19                   0    8.00000000000003                   0
        20     -1.42108547E-14                   0                   0
        21    7.99999999999999    1.4210854715E-14                   0
        22                  16                   0                   0
        23                  24                   0                   0
        24                  32                   0                   0
# ... 5664 like lines cut
#---1----|----2----|----3----|----4----|----5----|----6----|----7----|----8----|----9----|---10----|
#-  4. BOUNDARY CONDITIONS:
#---1----|----2----|----3----|----4----|----5----|----6----|----7----|----8----|----9----|---10----|
/BCS/1
New BCS 1
#  Tra rot   skew_ID  grnod_ID
   110 000         0         2
/GRNOD/NODE/2
BCS_group_2_of_NODE
      1062      1063      1066      1067      1070      1071      1074      1075      1078      1079
      1082      1083      1121      1122      1123      1124      1125      1126      1127      1128
      1129      1130      1131      1132      1149      1150      1152      1153      1155      1156
      1158      1159      1161      1162      1362      1364      1365      1366      2465      2466
      2469      2470      2473      2474      2477      2478      2481      2482      2544      2548
      2552      2556      2560      2664      2665      2666      2667      2668      2671      2672
      2673      2674      2930      2932      3901      3902      3903      3904      3920      3921
      3922      3938      3939      3940      3956      3957      3958      3979      3982      3993
      3994      4000      4016      4017      4018      4041      4042      4058      4066      4072
      4083      4084      4090      4096      4119      4120      4215      4299      4300      4342
      4354      5191      5192      5210      5211      5212      5228      5229      5230      5246
      5247      5248      5259      5271      5272      5278      5294      5295      5296      5307
      5308      5314      5320      5326      5337      5338      5373      5374      5463      5464
      5470      5529      5530      5542      5565      5566      5572      5595      5596      5597
      5598      5627      5630      5719      5722      5763      5764      5765      5766      5771
      5774      5779      5780      5781      5782      5877      5891      5892      5893      5894
      5914      5915      5916      5935      5936      5937      5938      5959      5961      5962
      5965      5966      6039      6040      6041      6042      6077      6078      6084      6088
      6214      6215      6216      6229      6230      6231      6232      6261      6262      6263
      6264      6269      6270      6271      6272      6275      6276      6279      6280      6303
# ... 8 like lines cut
#---1----|----2----|----3----|----4----|----5----|----6----|----7----|----8----|----9----|---10----|
#-  5. PARTS:
#---1----|----2----|----3----|----4----|----5----|----6----|----7----|----8----|----9----|---10----|
/PART/6
Brain
         4         9         0
#---1----|----2----|----3----|----4----|----5----|----6----|----7----|----8----|----9----|---10----|
# BRICK elements of /PART/6/Brain:
#---1----|----2----|----3----|----4----|----5----|----6----|----7----|----8----|----9----|---10----|
/BRICK/6
        26        40        39         8         9        41        42        43        44
        27        41        42        43        44        45        46        47        48
        28        45        46        47        48        49        50        51        52
        29        49        50        51        52        53        54        55        56
        30        53        54        55        56        57        58        59        60
        31        27        22        23        30        61        62        63        64
        32        61        62        63        64        65        66        67        68
        33        65        66        67        68        69        70        71        72
        34        69        70        71        72        73        74        75        76
        35        73        74        75        76        77        78        79        80
        36        16        17        29        31        81        82        83        84
        37        81        82        83        84        85        86        87        88
        38        85        86        87        88        89        90        91        92
        39        89        90        91        92        93        94        95        96
        40        93        94        95        96        97        98        99       100
        41        26        25        27        28       101       102        61       103
        42       101       102        61       103       104       105        65       106
        43       104       105        65       106       107       108        69       109
        44       107       108        69       109       110       111        73       112
        45       110       111        73       112       113       114        77       115
# ... 3430 like lines cut
#---1----|----2----|----3----|----4----|----5----|----6----|----7----|----8----|----9----|---10----|
/PART/7
Pia
         2         2         0
#---1----|----2----|----3----|----4----|----5----|----6----|----7----|----8----|----9----|---10----|
# SHELL elements of /PART/7/Pia:
#---1----|----2----|----3----|----4----|----5----|----6----|----7----|----8----|----9----|---10----|
/SHELL/7
         1       712       640       637       711
         2       637       638       652       651
         3       141       142        66        62
         4        22        62        63        23
         5       142       143        70        66
         6        62        66        67        63
         7       143       144        74        70
         8        66        70        71        67
         9       223       227       228       224
        10       144       145        78        74
        11        70        74        75        71
        12        74        78        79        75
        13      4665      4666      4678      4677
        14      4677      4648      4600      4665
        15       262       319       356       261
        16       227       231       232       228
        17       711       637       651       748
        18       242       262       261       260
        19       688       730       754       724
        20       296       297       334       333
# ... 770 like lines cut
#---1----|----2----|----3----|----4----|----5----|----6----|----7----|----8----|----9----|---10----|
/PART/8
CSF
         4         3         0
#---1----|----2----|----3----|----4----|----5----|----6----|----7----|----8----|----9----|---10----|
# BRICK elements of /PART/8/CSF:
#---1----|----2----|----3----|----4----|----5----|----6----|----7----|----8----|----9----|---10----|
/BRICK/8
      4626      1079      1078      1082      1083      5591      5592      5593      5594
      4627      5591      5592      5593      5594      5595      5596      5597      5598
      4628      1893      1869      1792      1852      5599      5600      5601      5602
      4629      5599      5600      5601      5602      5603      5604      5605      5606
      4630      2223      2260      2163      2149      5607      5608      5609      5610
      4631      5607      5608      5609      5610      5611      5612      5613      5614
      4632      4666      4664      4581      4665      5615      5616      5617      5618
      4633      5615      5616      5617      5618      5619      5620      5621      5622
      4634      5542      5541      5440      5470      5623      5624      5625      5626
      4635      5623      5624      5625      5626      5627      5628      5629      5630
      4636       975       918       920       976      5631      5632      5633      5634
      4637      5631      5632      5633      5634      5635      5636      5637      5638
      4638      1744      1945      1946      1748      5639      5640      5641      5642
      4639      5639      5640      5641      5642      5643      5644      5645      5646
      4640      1830      1941      1942      1834      5647      5648      5649      5650
      4641      5647      5648      5649      5650      5651      5652      5653      5654
      4642      1894      1910       616       652      5655      5656      5657      5658
      4643      5655      5656      5657      5658      5659      5660      5661      5662
      4644      4678      4684      3550      3586      5663      5664      5665      5666
      4645      5663      5664      5665      5666      5667      5668      5669      5670
# ... 1560 like lines cut
#---1----|----2----|----3----|----4----|----5----|----6----|----7----|----8----|----9----|---10----|
/PART/9
Skull
         6         8         0
#---1----|----2----|----3----|----4----|----5----|----6----|----7----|----8----|----9----|---10----|
# SHELL elements of /PART/9/Skull:
#---1----|----2----|----3----|----4----|----5----|----6----|----7----|----8----|----9----|---10----|
/SHELL/9
      1941      5884      7104      6738      6850
      1942      7036      5662      5870      7104
      1943      6017      6018      6338      6127
      1944      6338      6690      6633      6337
      1945      6458      6459      6019      6020
      1946      6460      5683      6459      6458
      1947      6976      6821      6082      5979
      1948      6760      5614      5611      7168
      1949      6127      6338      6337      6126
      1950      5749      5855      6960      5748
      1951      7146      7118      6439      6440
      1952      5685      6316      5842      5684
      1953      6476      5951      6635      6636
      1954      6690      7008      6636      6633
      1955      7043      7044      7008      6690
      1956      6419      6420      7044      7043
      1957      5840      5841      6420      6419
      1958      5684      5842      5841      5840
      1959      7008      6475      6476      6636
      1960      6333      5910      6910      6332
# ... 770 like lines cut
#---1----|----2----|----3----|----4----|----5----|----6----|----7----|----8----|----9----|---10----|
/PART/11
Ball
         5         6         0
#---1----|----2----|----3----|----4----|----5----|----6----|----7----|----8----|----9----|---10----|
# SHELL elements of /PART/11/Ball:
#---1----|----2----|----3----|----4----|----5----|----6----|----7----|----8----|----9----|---10----|
/SHELL/11
      8191      8772      8774      8776      8775
      8192      8772      8775      8777      8773
      8193      8772      8773      8778      8774
      8194      8773      8777      8782      8779
      8195      8774      8780      8783      8776
      8196      8773      8779      8786      8778
      8197      8774      8778      8787      8780
      8198      8775      8781      8784      8777
      8199      8775      8776      8785      8781
      8200      8777      8784      8788      8782
      8201      8776      8783      8789      8785
      8202      8778      8786      8790      8787
      8203      8779      8782      8794      8791
      8204      8780      8792      8795      8783
      8205      8779      8791      8798      8786
      8206      8780      8787      8799      8792
      8207      8781      8793      8796      8784
      8208      8781      8785      8797      8793
      8209      8782      8788      8800      8794
      8210      8783      8795      8801      8789
# ... 196 like lines cut
#---1----|----2----|----3----|----4----|----5----|----6----|----7----|----8----|----9----|---10----|
#-  6. GEOMETRICAL SETS:
#---1----|----2----|----3----|----4----|----5----|----6----|----7----|----8----|----9----|---10----|
/PROP/SHELL/2
Thick of Pia
#   Ishell    Ismstr     Ish3n    Idrill                            P_thick_fail
        24         0         0         0                                       0
#                 hm                  hf                  hr                  dm                  dn
                   0                   0                   0                   0                   0
#        N   Istrain               Thick              Ashear              Ithick     Iplas
         0         0                  .2                   0                   0         0
#---1----|----2----|----3----|----4----|----5----|----6----|----7----|----8----|----9----|---10----|
/PROP/SOLID/4
Properties of Brain, CSF, Skin
#   Isolid    Ismstr               Icpre  Itetra10     Inpts   Itetra4    Iframe                  dn
        24         0                   0         0         0         0         0                   0
#                q_a                 q_b                   h            LAMBDA_V                MU_V
                   0                   0                   0                   0                   0
#             dt_min
                   0
#---1----|----2----|----3----|----4----|----5----|----6----|----7----|----8----|----9----|---10----|
/PROP/SHELL/5
Ball
#   Ishell    Ismstr     Ish3n    Idrill                            P_thick_fail
        24         0         0         0                                       0
#                 hm                  hf                  hr                  dm                  dn
                   0                   0                   0                   0                   0
#        N   Istrain               Thick              Ashear              Ithick     Iplas
         0         0                  20                   0                   0         0
#---1----|----2----|----3----|----4----|----5----|----6----|----7----|----8----|----9----|---10----|
/PROP/SH_SANDW/6
Composite Skull
#   Ishell    Ismstr     Ish3n    Idrill                            P_thick_fail
        24         0         0         0                                       0
#                 hm                  hf                  hr                  dm                  dn
                   0                   0                   0                   0                   0
#        N   Istrain               Thick              Ashear              Ithick     Iplas
         3         0                   8                   0                   0         0
#                 Vx                  Vy                  Vz   Skew_ID     Iorth      Ipos
                   1                   1                   0         0         0         0
#                Phi                   t                   Z    mat_ID                      F_weight
                   0                   2                   0         7                             0
                   0                   4                   0         8                             0
                   0                   2                   0         7                             0
#---1----|----2----|----3----|----4----|----5----|----6----|----7----|----8----|----9----|---10----|
#-  7. INITIAL VELOCITIES:
#---1----|----2----|----3----|----4----|----5----|----6----|----7----|----8----|----9----|---10----|
/INIVEL/TRA/1
New INIVEL 1
#                 Vx                  Vy                  Vz   Gnod_id   Skew_id
                   0                  -3                   0         1         0
/GRNOD/PART/1
INIVEL_group_1_of_PART
        11
#---1----|----2----|----3----|----4----|----5----|----6----|----7----|----8----|----9----|---10----|
#-  8. INTERFACES:
#---1----|----2----|----3----|----4----|----5----|----6----|----7----|----8----|----9----|---10----|
/INTER/TYPE7/1
New INTER 1
# Secon_id   Main_id      Istf      Ithe      Igap                Ibag      Idel     Icurv      Iadm
         6         1         0         0         0                   0         0         0         0
#          Fscalegap             Gap_max             Fpenmax                         Itied
                   0                   0                   0                             0
#              Stmin               Stmax          %mesh_size               dtmin  Irem_gap   Irem_i2
                   0                   0                   0                   0         0         0
#              Stfac                Fric              Gapmin              Tstart               Tstop
                   0                   0                   0                   0                   0
#      IBC                        Inacti                VisS                VisF              Bumult
       000                             0                   0                   0                   0
#    Ifric    Ifiltr               Xfreq     Iform   sens_ID   fct_IDf             AscaleF   fric_ID
         0         0                   0         0         0         0                   0         0
/GRNOD/PART/6
INTER_group_6_of_PART
        11
/SURF/PART/EXT/1
INTER_group_8_of_PART
         8
#---1----|----2----|----3----|----4----|----5----|----6----|----7----|----8----|----9----|---10----|
#-  9. TRANSFORMATIONS:
#---1----|----2----|----3----|----4----|----5----|----6----|----7----|----8----|----9----|---10----|
/TRANSFORM/SCA/1
New TRANSFORM 1
# grnod_ID            Fscale_X            Fscale_Y            Fscale_Z  node_IDc
         4                   3                   3                   3         0          
/GRNOD/PART/4
TRANSFORM_group_4_of_PART
        11
#---1----|----2----|----3----|----4----|----5----|----6----|----7----|----8----|----9----|---10----|
/TRANSFORM/TRA/2
New TRANSFORM 2
# grnod_ID       X_translation       Y_translation       Z_translation  node_ID1  node_ID2    Sub_Id
         5                -350                -140                   0         0         0         0
/GRNOD/PART/5
TRANSFORM_group_5_of_PART
        11
#---1----|----2----|----3----|----4----|----5----|----6----|----7----|----8----|----9----|---10----|
#- 10. NODE GROUPS:
#---1----|----2----|----3----|----4----|----5----|----6----|----7----|----8----|----9----|---10----|
/GRNOD/PART/3
INTER_group_3_of_PART
        11
#---1----|----2----|----3----|----4----|----5----|----6----|----7----|----8----|----9----|---10----|
#- 11. TIME HISTORIES:
#---1----|----2----|----3----|----4----|----5----|----6----|----7----|----8----|----9----|---10----|
/TH/INTER/1
TH INTER
#     var1      var2      var3      var4      var5      var6      var7      var8      var9     var10
DEF       
#     Obj1      Obj2      Obj3      Obj4      Obj5      Obj6      Obj7      Obj8      Obj9     Obj10
         1
#---1----|----2----|----3----|----4----|----5----|----6----|----7----|----8----|----9----|---10----|
/END
#---1----|----2----|----3----|----4----|----5----|----6----|----7----|----8----|----9----|---10----|
